Biomedical
A Digital Gas Mask
Glass & Fibers
Shattering Glass Tank Design Methodologies
Reacting Flow
Three-Way Catalytic Converter Aftertreatment
Worldwide Offices
CFD in Germany
HVAC
Supplement 
Inside!
Fluent 
Celebrates!
VOL XII ISSUE 1 • SPRING 2003


Editor’s Note
Fluent News is published by
10 Cavendish Court
Lebanon, NH 03766 USA
1-800-445-4454
© 2003 Fluent Inc. 
All rights reserved.
FLUENT, FIDAP
, GAMBIT, POLYFLOW,
G/Turbo, MixSim, FlowLab, Icepak,
and Airpak are trademarks of Fluent
Inc. All other products or name
brands are trademarks of their
respective holders.
T
his year it is with
great pride that we
commemorate the
20th anniversary of our
first sale, and the 15th
anniversary of the launch
of our company. Bart
Patel, the founder of Fluent Inc. and current CEO,
provides some perspective on the growth of our
company and CFD in general on the back page
of this newsletter. Inside, we have chosen to honor
these important milestones by devoting the open-
ing section to reacting flow. Reactions have been
a part of Fluent’s software from the start, when
a three-component combustion model (fuel, oxy-
gen, and products) was a key feature. Since then,
reacting flow capabilities have advanced with every
release. Many of these are highlighted in the arti-
cles in our Reacting Flow section that begins on
page 4. New combustion models, surface reac-
tion models, and methods for solving multi-step
reactions are featured. The use of user-defined
functions to simulate a low-density polyethylene
(LDPE) reactor is also described. To top it off, we
even simulated the candles on the front cover
using one of the combustion models in FLUENT!
Immediately following the Reacting Flow sec-
tion is an article on bubble column reactors where
the focus is not on the reactions, but on the mul-
tiphase models that can be used to describe the
complicated flow physics in these devices. Several
biomedical applications are also featured in this
issue. Three of these make use of scanning equip-
ment for generating geometry files for parts of
the human body. This technique is becoming
more and more popular for applications of all
kinds, where CAD files for complex geometric
forms do not exist. Another technique that is 
growing in popularity among CFD users is the
coupling of two (or more) software products 
together. Examples highlighted in this newslet-
ter include the determination of sail shape for
given wind conditions, the optimization of an
automobile shape for reduced drag, and the solu-
tion of glass fiber drawing under the action of
convective and radiative heat transfer.
This issue’s supplement features applications
in the HVAC industry, with a cover story on the
airflow in and around the striking Swiss Re build-
ing that is nearing completion in London. The
article describes the innovative “mixed ventila-
tion” plans for the interior office space. Indeed,
many of the stories are about optimizing inte-
rior ventilation for a variety of buildings. Two are
targeted at smoke management scenarios, and
one focuses on industrial hygiene. Together, these
stories emphasize how CFD is becoming a main-
stay in the design phase of new construction all
over the world.
A new department is being introduced in this
newsletter in which we focus on the use of CFD
in and around one of our worldwide offices. In
the first installment, Fluent Deutschland is fea-
tured, along with the current state of CFD usage
in Germany. The Visions of the Future series con-
tinues with an interview of Herve Buisson and
Christelle de Traversay from Vivendi Water in 
France, commenting on the use of CFD in the
environmental industry. The Support Corner focus-
es on a topic that generates many questions from
users: how to set up a network of Windows PCs
for parallel computing. The information provided
should help some of you take this important step
forward if, until now, you have been hesitating.
Finally, we would like to extend our con-
gratulations to the Swiss team Alinghi for their
recent win of the America’s Cup, and to the Ecole
Polytechnique de Lausanne for providing
Alinghi’s design team with important guidelines
from numerical simulations, many of which involved
FLUENT. While your simulation efforts may not
result in the presentation of a coveted trophy,
we understand and appreciate the importance
they bring to your company and to your own
understanding of a particular process. Please con-
sider contributing an article to Fluent News that
describes the work you have done with our 
software. 
Liz Marshall
fluentnews@fluent.com
On the Cover:
Celebrating our anniversary are six
Fluent employees with a total of
139 years of service to the company
(left to right): Michael Engelman, 
Barbara Hutchings, Bart Patel,
Sharon Everts, John Murray, and
Ferit Boysan
On the Supplment Cover:
Pathlines, colored by velocity
magnitude, illustrate the flow
around the Swiss Re Headquarters
in London


Contents
16
feature stories
4
reacting flow
Reacting Flow Models in FLUENT
Three-Way Catalytic Converter
Aftertreatment
Optimizing Plant-Scale LDPE Reactors
The Berl Combustor Revisited
Deposition: One Layer at a Time
Surface Reactions in Catalytic Tubes
applications
10 chemical
Bubbling Columns
12 oil & gas
Separating Water & Gas
13 biomedical
A Digital Gas Mask
AccuSpray™ on Demand
Locating the Nasal Valve with FIELDVIEW®
The Heartbeat of Pulmonary Modeling
18 marine
Flying Sails on the Computer
First European America’s Cup Winners
22 automotive
Grid Morphing
The Sounds of the Road
24 customized applications
Customizing Food Steamers
25 materials
Keeping Printer Touch Temperatures Low
26 glass & fibers
Shattering Glass Tank Design
Methodologies
Chill Ripples in Glass
28 electronics & semiconductors
Optimizing Transformer Designs
Putting the Spin on Semiconductors
30 polymer processing
Molds that Feel the Pressure
hvac industry supplement
S2 ventilation
Swiss Re Headquarters Inside & Out
Looking Out for Crew Comfort in Space
California Living
Air Flow Befitting the US Marines
S6 industrial hygiene
Breathing Easier in the Workplace
S7 smoke management
Containing Smoke in Complex Atria
Fire Scenarios in the Budapest Sports Arena
departments
20 visions of the future
Environmental CFD
31 worldwide offices
CFD in Germany
39 academic news
Channeling Chaos
Students Take Home ANTEC Prize
Re-entry Vehicle Shocks
42 product news
FLUENT Ported to Itanium 2/HP-UX Platform
Mixing Simulation Gets Easier
FIDAP 8.7.2 Released in April 2003
POLYFLOW 3.10 Coming in June 2003
The Draw of POLYFLOW-FLUENT Coupling
45 support corner
Parallel Computing on a Windows Cluster
47 partnerships
LMS SYSNOISE Link to FLUENT
Spatial Provides CATIA V4 Translation 
for GAMBIT
48 around Fluent
Happy Anniversary Fluent!
New! Online Training
6
S3
31


4
Fluent NEWS spring 2003
reacting flow
Reacting Flow
Models in FLUENT
By Graham Goldin and Genong Li, Fluent Inc.
F
LUENT 6.1 is unique in its vast offerings
for simulating reacting flow. Many
models are available for gas, solid, and 
liquid fuels, for both gas-phase and surface
reactions.
For gas-phase combustion modeling, rapid
solutions can be obtained using the fast chem-
istry assumptions in the eddy dissipation (or
Magnussen), equilibrium mixture fraction,
or premixed models. These models are the
work-horses of current combustion simula-
tions and are widely employed. The eddy dis-
sipation model assumes that reactions occur
infinitely fast and that the reaction rate is lim-
ited by the turbulent mixing rate. The equi-
librium mixture fraction model tracks the
progress of a mixture fraction and its vari-
ance rather than multiple species, and makes
use of a PDF function for the turbulence-chem-
istry interaction. It can include intermediate
species and radicals in a reaction system as
long as the reactions are fast and those species
can be assumed to be in equilibrium. The
flamelet model extends the equilibrium mix-
ture fraction model to include finite rate effects
due to high flow strain rate. 
The recent gas-phase combustion mod-
els in FLUENT incorporate full finite-rate chem-
istry into flame simulations. FLUENT can import
detailed kinetic mechanisms in CHEMKIN for-
mat, and the use of ISAT (see the articles on
pages 6 and 7) now makes the solution of
multi-dimensional chemistry simulations
affordable. The eddy dissipation concept (EDC)
model and the PDF transport model, imple-
PDF transport particles colored by temperature for a
turbulent jet diffusion flame
GaAs growth on a rotating substrate 
and parasitic deposition on reactor walls
mented through a collaboration with
Professor Stephen Pope of Cornell, are avail-
able to account for turbulence-chemistry inter-
action. Both models allow for arbitrary complex
reaction mechanisms.
Coal combustion begins with the
devolatilization of fuel from the coal parti-
cle, and much effort has been spent on accu-
rately capturing this process, since it
ultimately governs the flame temperature and
hence, pollutant formation. The recently intro-
duced chemical percolation devolatilization
(CPD) model uses coal structure data based
on nuclear magnetic resonance measurements
to characterize devolatilization, and predic-
tions of off-gases have agreed well with data.
Liquid fuel combustion begins with an accu-
rate description of the spray and its breakup
into droplets. Evaporation follows, and sub-
sequently, combustion. Models for all of these
processes are available in FLUENT and com-
patible with the deforming mesh model, so
that in-cylinder combustion can be readily
simulated.
Surface reaction modeling, used by
engineers in the semiconductor industry and
for applications such as gas reformers and
catalytic converters, involves reactions
between species in the gas phase and on a
surface. For a deposition process, gaseous
species are adsorbed at the surface, where
reactions take place. These reactions leave
behind deposited surface species and cause
the release of other species back into the gas
phase. For etching processes, there may be
no deposited surface species, only reactions
that produce species that are released into
the gas. To correctly model both deposition
and etching, FLUENT allows for three types
of species, which can be either reactants or
products: gas species, site species (adsorbed
at the surface), and bulk species (left
behind on the surface following the reaction).
Many other reaction models are also avail-
able. Those for the prediction of pollutant
formation, such as NOx and soot, are wide-
ly used and customizable, if desired.
Chemical reactions in packed bed reactors
can be simulated using either the porous media
model or the fixed-bed Eulerian granular mul-
tiphase model, with the added option of spec-
ifying different reactions in different zones.
In addition to the many built-in capabilities,
reactions that depend on micromixing or pop-
ulation balance theory can be simulated
through user-defined functions. 
In summary, reaction modeling is a mature
capability in FLUENT that covers a wide range
of applications, and the articles on the next
several pages present just a sampling of these.
More examples can be found on our web-
site, www.fluent.com, or by calling your local
Fluent office or distributor. I


Fluent NEWS spring 2003
5
reacting flow
T
he majority of gasoline-fueled automobiles today have an emis-
sion control system that uses a three-way catalytic convert-
er. The purpose of the three-way catalyst is to convert carbon
monoxide (CO), nitrogen oxides (NOx), and unburned hydrocarbons
to carbon dioxide, water, and nitrogen so that emissions from gaso-
line engines can be rendered less harmful to the environment. 
Catalytic converters are built from structures called monoliths.
The monolith forms the basic framework of the converter, and acts
as an inert substrate for the catalytic coating. A layer of washcoat
is first deposited on the substrate, and the catalysts (often pre-
cious metals such as platinum, palladium, and rhodium) are then
deposited on the washcoat. In order to reach the required con-
version efficiencies for a practical converter, the surface area for
reactions must be very large, and this large area is provided by
the monolith geometry and the highly porous washcoat. To opti-
mize the design of a catalytic converter, it is important to inves-
tigate not only the flow field, but the chemical reactions and heat
transfer in the system as well. The distributions of temperature and
species throughout the device play an important role in its per-
formance.
FLUENT 6.1 is a powerful tool for reaction simulations. In addi-
tion to offering a number of modeling options for treating react-
ing flow, a new reaction model is available for reactions and heat
transfer inside porous regions, such as the monolith in the cat-
alytic converter. With the parallel computing capability in FLUENT,
this model can easily include the effects of multiple species and
reactions. Interoperability with CHEMKIN is also available, allow-
ing FLUENT to read complex gas or surface reaction mechanisms,
if needed.
For the catalytic converter, the reaction mechanism is taken from
Reference 1. Exhaust gas, consisting of O2, N2, C3H6, H2, H2O,
CO, and NO enters the converter from one runner with a uniform
flow rate of 0.01 kg/sec and temperature of 600K. The wall of the
converter is assumed to be adiabatic. The surface-to-volume ratio
of the porous media is assumed to be 3000 m-1. The exhaust species
diffuse to the surface of the washcoat, and are adsorbed by plat-
inum and rhodium to become sites species. Surface reactions take
place, and product species are released from the reacting surface
by desorption. Sixty-one surface reactions were used to model the
conversion of this mixture.
The temperature distribution on a plane cutting through the
exhaust pipes shows a temperature rise due to the catalyst reac-
tion taking place. This result is reflected in contour plots of other
species concentrations as well. I
reference
1
Chatterjee D., Deutschmann O., and Warnatz J., “Detailed Surface
Reaction Mechanism in a Three-Way Catalyst”, Faraday Discuss., Vol. 119, 
pp. 371-384, 2001.
Three-Way Catalytic Converter
Aftertreatment
By Yong Yi, Fluent Inc.
Geometry and mesh of the generic 3-way catalytic converter
Temperature distribution on a cutting plane through
the exhaust pipes with only the left runner open
Mass fraction of CO on the cutting plane through
the exhaust pipes with only the left runner open


6
Fluent NEWS spring 2003
reacting flow
Optimizing Plant-Scale 
LDPE Reactors
By Nitin H. Kolhapure* and Rodney O. Fox, Department of Chemical Engineering, Iowa State University, Ames, IA 
*Presently at DuPont Engineering Technology, Wilmington, DE
W
ith the ever-increasing availability of high-per-
formance computing tools, CFD is becoming
a significant technology, though still not dom-
inant, for reactor design in the chemical process indus-
try. CFD is emerging as a design tool for the
development of new processes and optimization of exist-
ing ones at a fraction of the cost and time of traditional
experimental and pilot-plant approaches. At Iowa State,
the ability of CFD to simulate turbulent reacting flows
in processes involving fast, mixing-sensitive reactions has
been investigated. These flows are characterized by inter-
actions between large and small chemical and mixing
time scales that play a significant role in determining
reactant consumption (yield), product quality (selectivity),
and reactor stability. Traditional reactor models based
on idealized flow assume perfect micromixing and fail
to account for such interactions. 
To improve upon these models, a comprehensive CFD
algorithm that links FLUENT with a sub-grid-scale multi-
environment micromixing (MEM) model and detailed
low-density polyethylene (LDPE) chemistry has been devel-
oped for plant-scale tubular reactors. In LDPE reactors,
a small amount of initiator is injected into a preheated
monomer flow to start a complex series of reactions that
produce polymers of varying length (molecular weight).
These reactors are extremely sensitive to local mixing
The mean mass fractions for initiator (top, 0 to 1.15x10-3), monomer (middle, 0.95 to 1), and temperature
(bottom, 250 to 307°C) inside a tubular reactor (d = 3.8 cm, L = 10 m) 
The injection region (0 to 0.2 m) is zoomed
in to highlight the non-uniform initiator
distribution, which caused a loss of 64%
initiator compared to plug-flow conditions
conditions due to stiff and highly exothermic kinetics
and hence, they serve as an excellent test case for com-
mercial reactors where control of the reaction condi-
tions and optimization of the reactor performance (i.e.,
reactor stability, initiator efficiency, polymer molecular
weight distribution) are desired.
An interactive interface was created for the project
using user-defined functions (UDFs) in FLUENT. C rou-
tines for the MEM model and FORTRAN routines for a
customized in-situ adaptive tabulation (ISAT)1 algorithm
for the LDPE chemistry were compiled and linked to 
FLUENT. The continuity equation, the k-ε model, the MEM
model, and the chemistry were solved sequentially at
each grid point in a 2D axisymmetric computational domain.
An unsteady coupled implicit solver was chosen to limit
the effects of truncation errors on the solution. The UDF
interface updated the mixing and chemical source terms
at each time step as per the formulation in the MEM model
and the ISAT algorithm. The interface also provided an
ability to account for the inter-dependence of the kinet-
ic, physical, and thermodynamic properties of the poly-
mer reaction mixture. ISAT enabled the inclusion of a
total of 16 species and offered ten-fold computational
gains by replacing the conventional direct integration
with a less expensive multi-linear interpolation. It proved
to be a powerful technique to include chemistry calcu-
lations in CFD without restricting the degrees of free-
dom of the chemical composition vector. More details
of the CFD algorithm with the UDF interface and the
MEM model can be found elsewhere.2,3
The CFD results demonstrated the capabilities of the
algorithm to capture the strong coupling between micromix-
ing and complex chemistry and predict the complete
reacting flow information, including species and tem-
perature distributions close to physical reality. The flow
information at the micro-scale provided important insights
into the occurrence of small-scale temperature fluctu-
ations (hot spots), deterioration of polymer quality, and


Fluent NEWS spring 2003
7
reacting flow
The Berl Combustor Revisited
By Graham M. Goldin, Fluent Inc.
120
100
80
60
40
20
0
0.0
0.3
0.5
radial position (m)
NO (ppm)
0.1
0.4
0.6
0.2
FLUENT – 27 mm
FLUENT – 432 mm
Experiment – 27 mm
Experiment – 432 mm
T
he focus of FLUENT 6.1 gas-phase com-
bustion modeling is to provide affordable,
detailed, finite-rate chemistry. With the new
models, kinetically controlled processes such
as pollutant formation (NOx, CO, etc.) and 
flame ignition/extinction can be simulated with 
high fidelity. 
The difficulty in including detailed kinetics
is the extreme non-linearity of the chemical
mechanism. Large computational times are
required to integrate the equation set, and spe-
cial care is required to properly couple the chem-
istry with the turbulent flow. For these two
reasons, most commercially available chem-
istry codes are limited to physical dimensions
of zero or one. 
To overcome the massive computational
demands of detailed chemistry simulation in
2D and 3D domains, FLUENT 6.1 incorporates
ISAT (In-Situ Adaptive Tabulation1), which can
accelerate chemistry calculations up to a thou-
sand-fold. For a chemical mechanism with N
species, ISAT builds N-dimensional chemistry
tables during the simulation. The expensive
kinetic integrations are mitigated by retriev-
ing the appropriate values from the table. ISAT
can be used with two turbulence-chemistry
interaction models in FLUENT 6.1: the Eddy
Dissipation Concept (EDC) model and the PDF
Transport model. 
To demonstrate the power of ISAT, a 
FLUENT 6.1 simulation of Sandia’s Burner
Engineering Research Laboratory (BERL) indus-
trial combustor has been performed using the
EDC model. The BERL combustor consists of
an annulus with swirling air, into which 24 fuel
jets inject natural gas. The mixture then enters
a quarl, which expands to a hexagonal com-
bustion chamber. Because of its complex physics
and ample supply of experimental data, the
BERL combustor has served as a benchmark
test case for combustion models in FLUENT
for many years.
Since the fuel jets in the cross-flow air-stream
cannot be accurately modeled in 2D, a 3D sec-
tor representing 1/24th of the burner is mod-
eled. The simulation makes use of the
realizable k-ε turbulence model, and the P1
radiation model. The chemistry is described
by a 9 species Augmented Reduced Mechanism
(ARM), which was derived from the detailed
natural gas mechanism by making steady-state
assumptions for certain species.2
Results for radial NO predictions are in good
agreement with experimental measurements
at 27mm and 432mm downstream of the quarl,
despite the many assumptions made in mod-
eling the turbulence, chemistry, radiation, and
their interactions with each other. Radial pro-
files of temperature and other species con-
centrations follow the same trends. In addition,
ISAT provides a net speed-up of 65 for this case.
Without ISAT, a simulation that can be com-
pleted overnight would require a month of 
run-time! I
references
1
Pope S.B., “Computationally Efficient
Implementation of Combustion Chemistry Using
In-Situ Adaptive Tabulation”, Combustion Theory
and Modeling, 1, pp. 41-63, 1997.
2
http://www.et.byu.edu:8080/~tom/Papers/
Hemant-WSS96/WSS.html.
Contours of NO on a center plane near the quarl
Comparison of FLUENT predictions of NOx with experimental
data for radial scans 27mm and 432mm downstream of the
quarl
The effect of micromixing is shown through local temperature fluctuations in the reacting environment
(top, 250 to 329°C) and higher polydispersity (molecular weight distribution) (bottom, 0 to 7.15) 
loss of initiator under extreme operating and
mixing conditions. The influence of feed tem-
perature, initiator concentration, and degree
of premixing on steady-state reactor performance
was helpful in making wiser, more well-informed
operational decisions. By replacing pilot-plant
tests, CFD offered a low-cost alternative to explore
a variety of design options for optimizing ini-
tiator consumption while controlling the prod-
uct quality and reactor safety. Though
validation of such a CFD approach against key
experimental data remains an integral and essen-
tial part of the design procedure, it opens greater oppor-
tunities for the development of safe and efficient chem-
ical processes at reduced costs and time. The study has
brought turbulent reacting flow simulation for single-
phase finite-rate chemistry closer to realistic chemical
process engineering applications. I
references
1
Pope S.B., “Computationally efficient implementation of com-
bustion chemistry using in situ adaptive tabulation.”
Combustion Theory and Modeling, 1:41-63, 1997.
2
Fox R.O., “Computational methods for turbulent reacting
flows in the chemical process industry.” Revue de l’Institut
Français du Pétrole, 51:215-243, 1996.
3
Kolhapure N.H. and Fox R.O., “CFD in polymer reaction engi-
neering: Combining polymerization chemistry and detailed
flow models.” DECHEMA Monogr., 137:247-271, 2001.


1.2
1.0
0.8
0.6
0.4
0.2
0.0
0
30
60
time (s)
site coverage
10
40
80
20
TiCl2
NH2
50
70
1.2
1.0
0.8
0.6
0.4
0.2
0.0
0
30
60
time (s)
growth rate (Ang)
10
40
80
20
Ti
N
50
70
40
20
00
30
60
time (s)
cumulative thickness (Ang)
10
40
80
20
Ti
N
50
70
8
Fluent NEWS spring 2003
reacting flow
A
s device sizes continue to shrink below 90nm,
the semiconductor roadmap suggests that
atomic layer deposition, or ALD processes will
be required for a variety of applications, such as the dep-
osition of barriers for copper interconnects, the creation
of tungsten nucleation layers, and the production of high-
ly conducting dielectrics. In the ALD process, two or more
precursor gases flow over a wafer surface in an alter-
nating manner, so that the gases can react with the sites
or functional groups on the wafer surface. When all of
the available sites are saturated, the reaction stops and
an inert gas flow purges the excess precursor molecules
from the region. The process is repeated, as the next
precursor gas flows over the wafer surface. A cycle is
defined as one pulse of precursor 1, purge, one pulse
of precursor 2, and purge. This sequence is repeated
until the final thickness is reached. These sequential, self-
limiting surface reactions result in one monolayer of deposit-
ed film per cycle. 
ALD is a stable process over a wide range of temperatures,
and as a result there is a linear relationship between the
thickness of the layer deposited and the number of dep-
osition cycles. Because of the periodic pulsing of reac-
tants and purge gases in short intervals, the ALD process
is challenging to simulate using CFD. The modeling strat-
egy for one cycle should include convective and diffu-
sive transport of reactants to the surface, transient boundary
Deposition:
One Layer 
at a Time
By Balaji Devulapalli, Fluent Inc.
Fractional coverages of TiCl2 and NH2 (left), growth rate for Ti and N as a function of pulse time (middle), and predicted film thickness at the wafer center over 10 cycles (right)
A typical ALD reactor along with pathlines 
colored by velocity, and TiN growth rate on the wafer
conditions to account for pulse sequences, adsorption of the monolayer of
the first precursor on the wafer surface, and subsequent surface reactions
with the second precursor gas. 
One important application for ALD is the deposition of a TiN (titanium nitride)
diffusion barrier using TiCl4 (titanium tetrachloride) and NH3 (ammonia) pre-
cursors. Since the properties of barrier films are related to their nucleation and
growth mechanisms, a detailed surface chemistry model is needed to char-
acterize adsorption, desorption, and heterogeneous surface reactions on the
wafer surface. The self-limiting surface reactions used in the model are: 
NH2(a) + TiCl4(g) →TiCl2(a) + 2HCl(g) + N(s)
TiCl2(a) + 2NH3(g) →2NH2(a) + 2HCl(g) + Ti(s)
Where (a) is an adsorbed site/surface species, (g) is a gas phase species,
and (s) is the deposited solid or bulk species. 
The TiN growth in a typical ALD reactor was investigated in FLUENT 6.1
by looking at the number of Ti atoms in the TiN layer per unit area, as a
function of the number of deposition cycles. Transient simulations indicated
that the gaseous concentration of TiCl4 increases during the first pulse, as
does the adsorbed site species TiCl2. After the purge, an NH3 pulse is ini-
tiated and reacts with the site species TiCl2. No cross-contamination between
the pulse cycles was observed, suggesting that the purge time could be
reduced. The model also predicted that the growth rates are uniform over
successive ALD cycles. 
The results shed light on different growth regimes: a transient regime
where film thickness for one deposition cycle increases towards a constant
value, and a saturated regime where film thickness for a given deposition
cycle is constant. The simulations also suggested that growth rate has a
linear relationship with the number of deposition cycles. The CFD model
provides a framework for investigating the influence of geometrical param-
eters and different precursor doses on film thickness. The results implied
that the NH3 dose significantly affects the TiN film growth. For low ammo-
nia dosing, the growth rates are significantly lower than those associated
with high ammonia doses. I


100
10-1
10-2
10-3
10-4
10-5
10-6
10-7
10-8
10-9
0
0.025
Z (m)
surface coverage
0.075
0.050
0.1
cos
cs
h2os
ohs
pts
os
hs
Fluent NEWS spring 2003
9
reacting flow
Surface
Reactions in
Catalytic Tubes
By Genong Li, Fluent Inc.
I
n many industrial applications, such as wafer processing
by chemical vapor deposition (CVD), combustion of
solids, chemical etching, and catalytic combustion, reac-
tions occur on wall surfaces. During the last few years,
detailed mechanisms for certain surface reactions, includ-
ing rate constants, began appearing in the literature.
Although there is a strong need to simulate such prob-
lems numerically, especially in conjunction with flow field
simulations that include gas-phase reactions, the stiff-
ness of the reaction systems and the complex
mass/energy interactions between the surface species
and gas phase species often make such problems dif-
ficult to solve. 
The new surface reaction model in FLUENT 6.1 allows
for arbitrary, complex reaction mechanisms, involving
any number of gas phase and/or surface species, and
reactions between different gas species, gas and surface
species, and different surface species. Surface reactions
are fully coupled with the flow simulation, so that the
distribution (coverage) of different surface species and
the deposition rate of bulk species on a wall can be tracked.
In addition to dealing with reactions on actual walls,
the model can also account for surface reactions on unre-
solved walls in a porous medium. Moreover, there is full
flexibility in the problem setup – different reaction mech-
anisms can be defined in different fluid or porous zones.
To illustrate the new capabilities in FLUENT, a tubu-
lar catalytic reactor, which represents a single pore of
an actual monolithic catalyst, was simulated. The tubu-
lar reactor is 10cm long and 2mm in diameter. The inner
tube surface is coated with platinum (Pt), which serves
as a catalyst to initiate and/or accelerate reactions. A 
22-step reaction mechanism1 was used in the simulation.
The system involves seven gas phase species (CH4, O2,
H2, H2O, CO, CO2, and N2) and eleven site (surface)